22
CHN
C       0.0482318   0         1.29854
C       0.771572    -1.24836  0.73279
C       0.771572    1.24836   0.73279
C       -1.43595    0         -0.70655
C       0.683272    -1.24567  -0.76739
C       0.683272    1.24567   -0.76739
C       -1.40934    0         0.78001
H       -0.0827182  0.000001  -2.22938
H       0.0701018   -0.000001 2.29838
H       1.72063     -1.24122  1.01304
H       1.72063     1.24122   1.01304
H       0.349342    -2.0698   1.09097
H       0.349342    2.0698    1.09097
H       -1.94519    0.80829   -1.08795
H       -1.94519    -0.80829  -1.08795
H       0.200462    -2.05221  -1.0769
H       0.200462    2.05221   -1.0769
H       1.5942      -1.26188  -1.15623
H       1.5942      1.26188   -1.15623
H       -1.94519    -0.88912  1.14598
H       -1.94519    0.88912   1.14598
N       -0.0485382  0         -1.22961

